Version 4
SHEET 1 880 680
WIRE -32 128 -160 128
WIRE 64 128 -32 128
WIRE 112 128 64 128
WIRE 368 128 288 128
WIRE 496 128 448 128
WIRE 576 128 496 128
WIRE -32 144 -32 128
WIRE 64 160 64 128
WIRE 112 160 64 160
WIRE 448 160 448 128
WIRE 448 160 288 160
WIRE 496 160 496 128
WIRE 576 160 576 128
WIRE 352 192 288 192
WIRE 448 192 448 160
WIRE 448 192 432 192
WIRE 112 208 80 208
WIRE 112 240 96 240
WIRE 336 240 288 240
WIRE -160 288 -160 208
WIRE -32 288 -32 208
WIRE -32 288 -160 288
WIRE 80 288 80 208
WIRE 80 288 -32 288
WIRE 96 288 96 240
WIRE 96 288 80 288
WIRE 208 288 208 272
WIRE 208 288 96 288
WIRE 336 288 336 240
WIRE 336 288 208 288
WIRE 496 288 496 224
WIRE 496 288 336 288
WIRE 576 288 576 240
WIRE 576 288 496 288
WIRE 208 336 208 288
FLAG 208 336 0
SYMBOL Misc\\TPS62172_TRANS 176 160 R0
WINDOW 3 23 -124 Top 2
SYMATTR InstName U1
SYMBOL voltage -160 112 R0
WINDOW 0 -42 96 Left 2
WINDOW 123 0 0 Left 0
WINDOW 39 0 0 Left 0
SYMATTR InstName V1
SYMATTR Value 5
SYMBOL cap -48 144 R0
SYMATTR InstName C1
SYMATTR Value 10”
SYMBOL ind 352 144 R270
WINDOW 0 32 56 VTop 2
WINDOW 3 60 5 VBottom 2
SYMATTR InstName L1
SYMATTR Value 2.2”
SYMBOL res 448 176 R90
WINDOW 0 11 23 VBottom 2
WINDOW 3 32 56 VTop 2
SYMATTR InstName R1
SYMATTR Value 100k
SYMBOL cap 480 160 R0
SYMATTR InstName C2
SYMATTR Value 22”
SYMBOL res 560 144 R0
SYMATTR InstName R2
SYMATTR Value 6.6
TEXT -192 360 Left 2 !.tran 1ms startup
